Program Version,EnergyPlus, Version 22.1.0-ed759b17ee, YMD=2022.05.19 20:09,
   ************* Successfully added path "C:\\Users\\grhen\\Documents\\GitHub\\EP_RLlib\\EP_IDF_Configuration" to the sys.path in Python
   ** Warning ** Standard Time Meridian and Time Zone differ by more than 1, Difference="2.0"
   **   ~~~   ** Solar Positions may be incorrect
   ** Severe  ** Schedule:File="AVIABILITY_CONTROL_C", File Name: "D:\GitHub\EP_RLlib\EP_IDF_Configuration\RL_Aviability_Sch_C_0.csv" not found.
   **   ~~~   **   Paths searched:
   **   ~~~   **     Current Working Directory: "D:\GitHub\EP_RLlib\EP_IDF_Configuration"
   ** Severe  ** Schedule:File="VENTN_CONTROL", File Name: "D:\GitHub\EP_RLlib\EP_IDF_Configuration\VentN_Aviability_Sch_0.csv" not found.
   **   ~~~   **   Paths searched:
   **   ~~~   **     Current Working Directory: "D:\GitHub\EP_RLlib\EP_IDF_Configuration"
   ** Severe  ** Schedule:File="VENTS_CONTROL", File Name: "D:\GitHub\EP_RLlib\EP_IDF_Configuration\VentS_Aviability_Sch_0.csv" not found.
   **   ~~~   **   Paths searched:
   **   ~~~   **     Current Working Directory: "D:\GitHub\EP_RLlib\EP_IDF_Configuration"
   ** Severe  ** Schedule:File="AVIABILITY_CONTROL_R", File Name: "D:\GitHub\EP_RLlib\EP_IDF_Configuration\RL_Aviability_Sch_R_0.csv" not found.
   **   ~~~   **   Paths searched:
   **   ~~~   **     Current Working Directory: "D:\GitHub\EP_RLlib\EP_IDF_Configuration"
   ** Severe  ** Schedule:File="SHADOW_CONTROL", File Name: "D:\GitHub\EP_RLlib\EP_IDF_Configuration\RL_Control_Sch_0.csv" not found.
   **   ~~~   **   Paths searched:
   **   ~~~   **     Current Working Directory: "D:\GitHub\EP_RLlib\EP_IDF_Configuration"
   **  Fatal  ** ProcessScheduleInput: Preceding Errors cause termination.
   ...Summary of Errors that led to program termination:
   ..... Reference severe error count=5
   ..... Last severe error=Schedule:File="SHADOW_CONTROL", File Name: "D:\GitHub\EP_RLlib\EP_IDF_Configuration\RL_Control_Sch_0.csv" not found.
   ************* Warning:  Node connection errors not checked - most system input has not been read (see previous warning).
   ************* Fatal error -- final processing.  Program exited before simulations began.  See previous error messages.
   ************* EnergyPlus Warmup Error Summary. During Warmup: 0 Warning; 0 Severe Errors.
   ************* EnergyPlus Sizing Error Summary. During Sizing: 0 Warning; 0 Severe Errors.
   ************* EnergyPlus Terminated--Fatal Error Detected. 1 Warning; 5 Severe Errors; Elapsed Time=00hr 00min  0.47sec
