Program Version,EnergyPlus, Version 22.1.0-ed759b17ee, YMD=2022.05.19 20:09
